** CALCULIX - ALA BATIENTE
** Los dos asteriscos al comienzo de una línea la hacen comentario.
**
** DEFINICIÓN DE NODOS, MALLA Y CONJUNTOS DE NODOS Y ELEMENTOS
**
** Importamos la malla (conjunto de nodos + definicion de elementos).
*INCLUDE, INPUT=mallaAla.msh
**
**
** Definimos un nodo que luego nos servirá para imponer el forzado (oscilación).
**NODE, NSET=NcentroRotacion
**42013,           0.,           0., 0.00499999989
**
**
** Creamos el conjunto de nodos del ala que están adheridos a la varilla. Luego definiremos ciertos constraints sobre ellos.
*INCLUDE, INPUT=nodosFijos.nam
**
**
** Creamos el conjunto de los nodos en la superficie del ala. Es decir, aquellos que recibirán las fuerzas del fluido.
*INCLUDE, INPUT=interfase.nam
**
**
**SURFACE, TYPE=NODE, NAME=SuperficieAcoplada
**NnodosFijos
**
**
** MATERIALES
**
** Se define el material del ala.
*MATERIAL, NAME=acetato
*DENSITY
1623.,
*ELASTIC
 4.5e9, 0.38
**
**Asignamos el material al ala y definimos un nodo rigido (centro de rotacion).
*SOLID SECTION, Elset=Eala, material=acetato
**RIGID BODY, NSET=NcentroRotacion, REF NODE=42013, ROT NODE=42013
**
**
** FORZADO Y RESTRICCIONES CINEMÁTICAS
**
** Restrcción cinemática: AcoplamientoAVarilla
**COUPLING, REF NODE=42013, SURFACE=SuperficieAcoplada, CONSTRAINT NAME=AcoplamientoAVarilla
**KINEMATIC
**
** Se define amplitud para el forzado. !!! REQUIERE TENER MI SUBRUTINA EN uamplitude.f antes de compilar CCX_precice
** Por ahora, queda como comentario (sin forzado).
**AMPLITUDE, NAME=SINE, TIME=TOTAL TIME, USER
**
**
** CONDICIONES DE CONTORNO (Aquellas que no varían)
**
** Para el nodo dummy que hace de centro de varilla, le restringimos los grados de libertad que no interesan.
**BOUNDARY
**NcentroRotacion, 1, 1
**NcentroRotacion, 2, 2
**NcentroRotacion, 3, 3
**NcentroRotacion, 4, 4
**NcentroRotacion, 5, 5
**
** La siguiente línea es por si no queremos forzado. Comentar en caso de querer.
**NcentroRotacion, 6, 6
**
** Al ala le fijamos los grados de libertad que tampoco interesan (i.e. estamos en el caso bidimensional).
*BOUNDARY 
Nala, 3, 3
Nala, 4, 4
Nala, 5, 5
**
** CONDICIONES DE SIMULACIÓN
**
*STEP, NLGEOM=YES, inc=10000000
*DYNAMIC
1e-3,10
**
**
** Condición de contorno para el forzado // El último número es la amplitud de batido en radianes.
** Por ahora, queda como comentario (sin forzado).
**BOUNDARY, AMPLITUDE=Sine
**NcentroRotación, 6, 6, 0.174533
**
*BOUNDARY
NnodosFijos, 1, 3
**
**
** Aplicamos las fuerzas que nos manda OF (a través de preCICE).
*CLOAD
 Nsurface, 1, 0.0
 Nsurface, 2, 0.0
 Nsurface, 3, 0.0
**
**
** Guardamos las nuevas posiciones de nodos elementos.
*NODE FILE
 U
*EL FILE
 S, E
*END STEP
