** CALCULIX - ALA BATIENTE
** Los dos asteriscos al comienzo de una línea la hacen comentario.
**
** DEFINICIÓN DE NODOS, MALLA Y CONJUNTOS DE NODOS Y ELEMENTOS
**
** Importamos la malla (conjunto de nodos + definicion de elementos).
*INCLUDE, INPUT=mallaAla.msh
**
** Definimos un nodo que luego nos servirá para imponer el forzado (oscilación).
*NODE, NSET=NcentroRigido
8830, 0.0250000004, 0.0450000018, 0.00499999989
**
** Creamos el conjunto de los nodos en la superficie del ala. Es decir, aquellos que recibirán las fuerzas del fluido.
*INCLUDE, INPUT=interfase.nam
**
**
** MATERIALES
**
** Se define el material del ala.
*MATERIAL, NAME=acetato
*DENSITY
1623.,
*ELASTIC
5.376e11, 0.38
** Se define el material de la varilla, "vibranio".
*MATERIAL, NAME=VIBRANIO
*DENSITY
 1e-10,
*ELASTIC
 1e+24, 0.3
**
** Asignamos materiales a las partes del modelo.
** Section: seccionAcetato
*SOLID SECTION, ELSET=Eala, MATERIAL=acetato
** Section: seccionVibranio
*SOLID SECTION, ELSET=Evarilla, MATERIAL=vibranio
**
**
** FORZADO
**
** Definimos un sistema de coordenadas cilíndricas (quizás ya no es necesario) !!! ¿Borrar?.
*ORIENTATION, NAME=SISTCILIN, SYSTEM=CYLINDRICAL
0., 0., 0., 0., 0., 1
** Constraint: restriccionCR
*RIGID BODY, REF NODE=8830, ROT NODE=8830, ELSET=Evarilla
** Se define amplitud para el forzado. !!! REQUIERE TENER MI SUBRUTINA EN uamplitude.f antes de compilar CCX_precice
*AMPLITUDE, NAME=SINE, TIME=TOTAL TIME, USER
**
**
** CONDICIONES DE CONTORNO (Aquellas que no varían y son homogéneas.)
**
** Al ala le fijamos los grados de libertad que tampoco interesan (i.e. estamos en el caso bidimensional).
*BOUNDARY 
Nala, 3, 3
**
**
** CONDICIONES DE SIMULACIÓN
**
*STEP, NLGEOM=YES, inc=10000000000
*DYNAMIC, DIRECT
1E-5, 10000
**
** CONDICIONES DE CONTORNO
**
**
*BOUNDARY
8830, 1, 5, 0
** Condición de contorno para el forzado // El último número es la amplitud de batido en radianes.
*BOUNDARY, AMPLITUDE=SINE
8830, 6, 6, 0.174533
**
** Aplicamos las fuerzas que nos manda OF (a través de preCICE).
*CLOAD
 NsurfaceAla, 1, 0.0
 NsurfaceAla, 2, 0.0
 NsurfaceAla, 3, 0.0
**
**
** Guardamos las nuevas posiciones de nodos elementos.
** NODE FILE
** U
**EL FILE
** S, E
*END STEP
