*INCLUDE, INPUT=malla.msh
*MATERIAL, NAME=Acetato
*DENSITY
1390.,
*ELASTIC, 
4.805e+9, 0.38
*SOLID SECTION, ELSET=Eall, MATERIAL=Acetato
*BOUNDARY
Nall, 3
121, 1, 2
242, 1, 2
363, 1, 2
484, 1, 2
605, 1, 2
726, 1, 2
*STEP
*FREQUENCY
5
*NODE FILE
U
*EL FILE
S, E
*END STEP
