*Heading
** Job name: 60x1 Model name: Model-1
** Generated by: Abaqus/CAE 2021
*Preprint, echo=NO, model=NO, history=NO, contact=NO
** ----------------------------------------------------------------
** 
** PART INSTANCE: ala-1
** 
*Node
      1, 0.0659999996, 0.0299750008,  0.159999996
      2, 0.0654166639, 0.0299750008,  0.159999996
      3, 0.0648333281, 0.0299750008,  0.159999996
      4, 0.0642499924, 0.0299750008,  0.159999996
      5, 0.0636666492, 0.0299750008,  0.159999996
      6, 0.0630833134, 0.0299750008,  0.159999996
      7, 0.0624999776, 0.0299750008,  0.159999996
      8, 0.0619166419, 0.0299750008,  0.159999996
      9, 0.0613333061, 0.0299750008,  0.159999996
     10, 0.0607499667, 0.0299750008,  0.159999996
     11, 0.0601666309, 0.0299750008,  0.159999996
     12, 0.0595832951, 0.0299750008,  0.159999996
     13, 0.0589999594, 0.0299750008,  0.159999996
     14, 0.0584166199, 0.0299750008,  0.159999996
     15, 0.0578332841, 0.0299750008,  0.159999996
     16, 0.0572499484, 0.0299750008,  0.159999996
     17, 0.0566666089, 0.0299750008,  0.159999996
     18, 0.0560832731, 0.0299750008,  0.159999996
     19, 0.0554999374, 0.0299750008,  0.159999996
     20, 0.0549166016, 0.0299750008,  0.159999996
** ... 224 like lines cut
*Element, type=C3D8I
 1, 123, 124, 185, 184,   1,   2,  63,  62
 2, 124, 125, 186, 185,   2,   3,  64,  63
 3, 125, 126, 187, 186,   3,   4,  65,  64
 4, 126, 127, 188, 187,   4,   5,  66,  65
 5, 127, 128, 189, 188,   5,   6,  67,  66
 6, 128, 129, 190, 189,   6,   7,  68,  67
 7, 129, 130, 191, 190,   7,   8,  69,  68
 8, 130, 131, 192, 191,   8,   9,  70,  69
 9, 131, 132, 193, 192,   9,  10,  71,  70
10, 132, 133, 194, 193,  10,  11,  72,  71
11, 133, 134, 195, 194,  11,  12,  73,  72
12, 134, 135, 196, 195,  12,  13,  74,  73
13, 135, 136, 197, 196,  13,  14,  75,  74
14, 136, 137, 198, 197,  14,  15,  76,  75
15, 137, 138, 199, 198,  15,  16,  77,  76
16, 138, 139, 200, 199,  16,  17,  78,  77
17, 139, 140, 201, 200,  17,  18,  79,  78
18, 140, 141, 202, 201,  18,  19,  80,  79
19, 141, 142, 203, 202,  19,  20,  81,  80
20, 142, 143, 204, 203,  20,  21,  82,  81
** ... 40 like lines cut
*Nset, nset=ala-1__PickedSet2, generate
   1,  244,    1
*Elset, elset=ala-1__PickedSet2, generate
  1,  60,   1
** Section: seccionDeAcetato
*Solid Section, elset=ala-1__PickedSet2, material=Acetato
,
*System
*Nset, nset=NbordeAtaque, generate
  61,  244,   61
*Nset, nset=NsurfaceBottom, generate
   1,  122,    1
*Nset, nset=NsurfaceSide, generate
   1,  184,   61
*Nset, nset=NsurfaceTop, generate
 123,  244,    1
*Surface, type=NODE, name=NbordeDeAtaque
NbordeDeAtaque, 1.
** Constraint: restriccionCinematica
*Coupling, constraint name=restriccionCinematica, ref node=_PickedSet8, surface=NbordeDeAtaque
*Kinematic
*Amplitude, name=Seno, definition=PERIODIC
1,           62.83,              0.,              0.
             0.,              1.
** 
** MATERIALS
** 
*Material, name=Acetato
*Density
1623.,
*Elastic
 5.377e+09, 0.38
** ----------------------------------------------------------------
** 
** STEP: Aleteado
** 
*Step, name=Aleteado, nlgeom=YES, inc=100000000
*Dynamic,direct
0.0025,5.,
** 
** OUTPUT REQUESTS
** 
*Restart, write, frequency=0
** 
** FIELD OUTPUT: F-Output-1
** 
*Output, field, time interval=0.005
*Node Output
A, U, V
** 
** HISTORY OUTPUT: H-Output-1
** 
*Output, history, variable=PRESELECT
*End Step
