*INCLUDE, INPUT=malla.msh
*MATERIAL, NAME=Acetato
*DENSITY
1390.,
*ELASTIC
4.805e+09, 0.38
*SOLID SECTION, ELSET=Eall, MATERIAL=Acetato
*BOUNDARY
Nall, 3
NbordeAtaque, 1, 2
*STEP
*FREQUENCY
5
*NODE FILE
U
*EL FILE
S, E
*END STEP
