*Heading
** Job name: 12x1 Model name: Model-1
** Generated by: Abaqus/CAE 2021
*Preprint, echo=NO, model=NO, history=NO, contact=NO
** ----------------------------------------------------------------
** 
** PART INSTANCE: ala-1
** 
*Node
      1, 0.0659999996, 0.0299750008,  0.159999996
      2, 0.0630833134, 0.0299750008,  0.159999996
      3, 0.0601666309, 0.0299750008,  0.159999996
      4, 0.0572499484, 0.0299750008,  0.159999996
      5, 0.0543332621, 0.0299750008,  0.159999996
      6, 0.0514165796, 0.0299750008,  0.159999996
      7, 0.0484998934, 0.0299750008,  0.159999996
      8, 0.0455832109, 0.0299750008,  0.159999996
      9, 0.0426665284, 0.0299750008,  0.159999996
     10, 0.0397498421, 0.0299750008,  0.159999996
     11, 0.0368331596, 0.0299750008,  0.159999996
     12, 0.0339164734, 0.0299750008,  0.159999996
     13, 0.0309997909, 0.0299750008,  0.159999996
     14, 0.0659999996, 0.0299750008,           0.
     15, 0.0630833134, 0.0299750008,           0.
     16, 0.0601666309, 0.0299750008,           0.
     17, 0.0572499484, 0.0299750008,           0.
     18, 0.0543332621, 0.0299750008,           0.
     19, 0.0514165796, 0.0299750008,           0.
     20, 0.0484998934, 0.0299750008,           0.
** ... 32 like lines cut
*Element, type=C3D8I
 1, 27, 28, 41, 40,  1,  2, 15, 14
 2, 28, 29, 42, 41,  2,  3, 16, 15
 3, 29, 30, 43, 42,  3,  4, 17, 16
 4, 30, 31, 44, 43,  4,  5, 18, 17
 5, 31, 32, 45, 44,  5,  6, 19, 18
 6, 32, 33, 46, 45,  6,  7, 20, 19
 7, 33, 34, 47, 46,  7,  8, 21, 20
 8, 34, 35, 48, 47,  8,  9, 22, 21
 9, 35, 36, 49, 48,  9, 10, 23, 22
10, 36, 37, 50, 49, 10, 11, 24, 23
11, 37, 38, 51, 50, 11, 12, 25, 24
12, 38, 39, 52, 51, 12, 13, 26, 25
*Nset, nset=ala-1__PickedSet2, generate
  1,  52,   1
*Elset, elset=ala-1__PickedSet2, generate
  1,  12,   1
** Section: seccionDeAcetato
*Solid Section, elset=ala-1__PickedSet2, material=Acetato
,
*System
*Nset, nset=NbordeAtaque, generate
 13,  52,  13
*Nset, nset=NsurfaceBottom, generate
  1,  26,   1
*Nset, nset=NsurfaceSide, generate
  1,  40,  13
*Nset, nset=NsurfaceTop, generate
 27,  52,   1
*Surface, type=NODE, name=NbordeDeAtaque
NbordeDeAtaque, 1.
** Constraint: restriccionCinematica
*Coupling, constraint name=restriccionCinematica, ref node=_PickedSet8, surface=NbordeDeAtaque
*Kinematic
*Amplitude, name=Seno, definition=PERIODIC
1,           62.83,              0.,              0.
             0.,              1.
** 
** MATERIALS
** 
*Material, name=Acetato
*Density
1623.,
*Elastic
 5.377e+09, 0.38
** ----------------------------------------------------------------
** 
** STEP: Aleteado
** 
*Step, name=Aleteado, nlgeom=YES, inc=100000000
*Dynamic,direct
0.0025,5.,
** 
** OUTPUT REQUESTS
** 
*Restart, write, frequency=0
** 
** FIELD OUTPUT: F-Output-1
** 
*Output, field, time interval=0.005
*Node Output
A, U, V
** 
** HISTORY OUTPUT: H-Output-1
** 
*Output, history, variable=PRESELECT
*End Step
